/batch
/config,noeldb,1     ! force off writing results to database
*get,_wallstrt,active,,time,wall
! ANSYS input file written by Workbench version 2022 R1
! File used for geometry attach: C:\Users\Nate\Documents\Ansys\Project2\Project2_files\dp23\Geom\DM\Geom.agdb
/title,Project2--Static Structural (B5)
! ****** Begin Custom Load Command Snippet ******
/COM, ACT Extensions:
/COM,     LSDYNA, 2021.1
/COM,     5f463412-bd3e-484b-87e7-cbc0a665e474, wbex
/COM,
! ****** End   Custom Load Command Snippet ******
*DIM,_wb_ProjectScratch_dir,string,248
_wb_ProjectScratch_dir(1) = 'C:\Users\Nate\Documents\Ansys\Project2\_ProjectScratch\Scr1514\'
*DIM,_wb_SolverFiles_dir,string,248
_wb_SolverFiles_dir(1) = 'C:\Users\Nate\Documents\Ansys\Project2\Project2_files\dp23\SYS\MECH\'
*DIM,_wb_userfiles_dir,string,248
_wb_userfiles_dir(1) = 'C:\Users\Nate\Documents\Ansys\Project2\Project2_files\user_files\'
/com,--- Data in consistent MKS units. See Solving Units in the help system for more information.
/units,MKS
/nopr
/wb,file,start              !  signify a WB generated input file
/prep7
! Turn off shape checking because checks already performed inside WB mesher.
! See help system for more information.
SHPP,OFF,,NOWARN
/nolist
etcon,set             ! allow ANSYS to choose best KEYOP's for 180x elements, resets any applicable keyopt to MAPDL defaults
/com,*********** Nodes for the whole assembly ***********
nblock,3,,14509
(1i9,3e20.9e3)
        1    -9.413332319E-18     4.000000000E-02     7.686569160E-02
        2    -1.772644840E-02     4.000000000E-02     7.479376694E-02
        3    -3.449725938E-02     4.000000000E-02     6.868969094E-02
        4    -4.940831417E-02     4.000000000E-02     5.888253592E-02
        5    -6.165575396E-02     4.000000000E-02     4.590100815E-02
        6    -7.057931610E-02     4.000000000E-02     3.044494515E-02
        7    -7.569792903E-02     4.000000000E-02     1.334758727E-02
        8    -7.673564702E-02     4.000000000E-02    -4.469342487E-03
        9    -7.363652641E-02     4.000000000E-02    -2.204532884E-02
       10    -6.656764161E-02     4.000000000E-02    -3.843284580E-02
       11    -5.591007801E-02     4.000000000E-02    -5.274843810E-02
       12    -4.223838764E-02     4.000000000E-02    -6.422034845E-02
       13    -2.628961486E-02     4.000000000E-02    -7.223012319E-02
       14    -8.923562135E-03     4.000000000E-02    -7.634595330E-02
       15     8.923562135E-03     4.000000000E-02    -7.634595330E-02
       16     2.628961486E-02     4.000000000E-02    -7.223012319E-02
       17     4.223838764E-02     4.000000000E-02    -6.422034845E-02
       18     5.591007801E-02     4.000000000E-02    -5.274843810E-02
       19     6.656764161E-02     4.000000000E-02    -3.843284580E-02
       20     7.363652641E-02     4.000000000E-02    -2.204532884E-02
! ... 13171 like lines cut
/com,*********** Nodes for all Remote Points ***********
nblock,3
(1i9,3e20.9e3)
    13191     0.000000000E+00    -2.749999985E-02     1.292034336E-20
    13192     0.000000000E+00    -2.749999985E-02     1.292034336E-20
    13193    -1.888717154E-05     2.139088139E-02     1.888717154E-05
    13194    -1.888717154E-05     2.139088139E-02     1.888717154E-05
-1
/wb,elem,start            !  set before creation of elements
/com,*********** Elements for Body 1 "Solid" ***********
et,1,187
eblock,19,solid,,3074
(19i9)
        1        1        1        1        0        0        0        0       10        0        1       98     1075      697      988     1858     5158     1853     1855
     6089     5157
        1        1        1        1        0        0        0        0       10        0        2       98     1006     1075     1064     1856     6131     1858     1857
     6130     6206
        1        1        1        1        0        0        0        0       10        0        3      671      713     1075      988     5053     5201     5056     5055
     5200     6089
        1        1        1        1        0        0        0        0       10        0        4      165      671      713     1075     2311     5053     2313     2317
     5056     5201
        1        1        1        1        0        0        0        0       10        0        5      945     1075      968      988     5895     6033     5890     5891
     6089     6028
        1        1        1        1        0        0        0        0       10        0        6     1006     1043     1075     1064     6128     6193     6131     6130
     6191     6206
        1        1        1        1        0        0        0        0       10        0        7      165     1043     1075     1006     2316     6193     2317     2315
     6128     6131
        1        1        1        1        0        0        0        0       10        0        8      165      945     1075     1043     2314     5895     2317     2316
     5893     6193
        1        1        1        1        0        0        0        0       10        0        9      165      671     1075      945     2311     5056     2317     2314
     5054     5895
        1        1        1        1        0        0        0        0       10        0       10      732     1074      812     1018     5269     5502     5267     5268
     6163     5499
! ... 6129 like lines cut
!Material Id = {91110BFB-354B-4537-B643-5B7C4511BB0D}
/com,*********** Elements for Body 2 "Solid" ***********
et,2,187
eblock,19,solid,,1832
(19i9)
        2        2        2        2        0        0        0        0       10        0     3075     7084     7095     7346     7316    12277    12324    12283    12281
    12323    12969
        2        2        2        2        0        0        0        0       10        0     3076     6892     7346     7084     7095    11213    12283    11207    11208
    12324    12277
        2        2        2        2        0        0        0        0       10        0     3077     6847     7346     6892     7095    10833    11213    10824    10828
    12324    11208
        2        2        2        2        0        0        0        0       10        0     3078     7095     7218     7346     7316    12322    12663    12324    12323
    12662    12969
        2        2        2        2        0        0        0        0       10        0     3079     6847     7346     7095     7218    10833    12324    10828    10830
    12663    12322
        2        2        2        2        0        0        0        0       10        0     3080     6892     7084     7346     7293    11207    12283    11213    11211
    12280    12933
        2        2        2        2        0        0        0        0       10        0     3081     7218     7255     7346     7316    12661    12813    12663    12662
    12811    12969
        2        2        2        2        0        0        0        0       10        0     3082     6847     7346     7218     7255    10833    12663    10830    10832
    12813    12661
        2        2        2        2        0        0        0        0       10        0     3083     6892     7346     7169     7334    11213    12539    11210    11212
    12995    12538
        2        2        2        2        0        0        0        0       10        0     3084     6847     6892     7346     7169    10824    11213    10833    10829
    11210    12539
! ... 3645 like lines cut
!Material Id = {D57717DA-2E6D-48FB-B4BA-93CA0AA9E0AE}
/com,*********** Elements for Body 3 "Solid" ***********
et,3,187
eblock,19,solid,,1675
(19i9)
        3        3        2        3        0        0        0        0       10        0     4907     6770     7430     6817     7429    10584    10698    10581    10583
    13190    10697
        3        3        2        3        0        0        0        0       10        0     4908     6473     6770     7430     6817     9106    10584     9109     9108
    10581    10698
        3        3        2        3        0        0        0        0       10        0     4909     6636     6817     7430     7372    10142    10698    10144    10143
    10696    13091
        3        3        2        3        0        0        0        0       10        0     4910     6473     7430     6636     6817     9109    10144     9104     9108
    10698    10142
        3        3        2        3        0        0        0        0       10        0     4911     6473     7430     6809     6600     9109    10679     9107     9102
     9982     9978
        3        3        2        3        0        0        0        0       10        0     4912     6473     6636     7430     6600     9104    10144     9109     9102
     9976     9982
        3        3        2        3        0        0        0        0       10        0     4913     6473     7430     6770     6606     9109    10584     9106     9103
    10011    10008
        3        3        2        3        0        0        0        0       10        0     4914     6817     7430     7372     7429    10698    13091    10696    10697
    13190    13090
        3        3        2        3        0        0        0        0       10        0     4915     6606     7409     7430     7424    10009    13174    10011    10010
    13173    13189
        3        3        2        3        0        0        0        0       10        0     4916     6473     6606     6642     7430     9103    10005     9105     9109
    10011    10177
! ... 3331 like lines cut
!Material Id = {6A201B38-57E9-4B76-A5A5-59CB2CA5AF4B}
/wb,elem,end               !  done creating elements
/com,*********** Send User Defined Coordinate System(s) ***********
local,12,0,0.,-2.74999998509884e-002,1.29203433560791e-020,-180.,-90.,-180.
local,13,0,-1.88871715412134e-005,2.13908813893795e-002,1.88871715412092e-005,0.,0.,0.
csys,0
toffst,273.15,  ! Temperature offset from absolute zero
/com,*********** Set Reference Temperature ***********
tref,22.
/wb,mat,start              !  starting to send materials
/com,*********** Send Materials ***********
Temperature = 'TEMP' ! Temperature
MP,DENS,1,7200,	! kg m^-3
MP,ALPX,1,1.1e-05,	! C^-1
MP,C,1,447,	! J kg^-1 C^-1
MP,KXX,1,52,	! W m^-1 C^-1
MP,RSVX,1,9.6e-08,	! kg m^3 A^-2 s^-3
MP,EX,1,110000000000,	! Pa
MP,NUXY,1,0.28,
MP,MURX,1,10000,
MP,UVID,1,e45fb210-7bd2-42b5-8b8f-d3778b8be923
MP,UMID,1,f60bcced-8a07-4217-aedb-972d67ace671

Temperature = 'TEMP' ! Temperature
MP,DENS,2,7200,	! kg m^-3
MP,ALPX,2,1.1e-05,	! C^-1
MP,C,2,447,	! J kg^-1 C^-1
MP,KXX,2,52,	! W m^-1 C^-1
MP,RSVX,2,9.6e-08,	! kg m^3 A^-2 s^-3
MP,EX,2,110000000000,	! Pa
MP,NUXY,2,0.28,
MP,MURX,2,10000,
MP,UVID,2,e45fb210-7bd2-42b5-8b8f-d3778b8be923
MP,UMID,2,f60bcced-8a07-4217-aedb-972d67ace671

Temperature = 'TEMP' ! Temperature
MP,DENS,3,7200,	! kg m^-3
MP,ALPX,3,1.1e-05,	! C^-1
MP,C,3,447,	! J kg^-1 C^-1
MP,KXX,3,52,	! W m^-1 C^-1
MP,RSVX,3,9.6e-08,	! kg m^3 A^-2 s^-3
MP,EX,3,110000000000,	! Pa
MP,NUXY,3,0.28,
MP,MURX,3,10000,
MP,UVID,3,e45fb210-7bd2-42b5-8b8f-d3778b8be923
MP,UMID,3,f60bcced-8a07-4217-aedb-972d67ace671

/wb,mat,end                !  done sending materials
!************************* Model Summary ********************
!Solid,	Gray Cast Iron,	matid,	1
!Solid,	Gray Cast Iron,	matid,	2
!Solid,	Gray Cast Iron,	matid,	3
!************************* End Model Summary ********************
! get the diagonal of the bounding box. Needed later for other things
*get,_xmin,node,,mnloc,x
*get,_ymin,node,,mnloc,y
*get,_zmin,node,,mnloc,z
*get,_xmax,node,,mxloc,x
*get,_ymax,node,,mxloc,y
*get,_zmax,node,,mxloc,z
_ASMDIAG=(_xmax-_xmin)*(_xmax-_xmin)+(_ymax-_ymin)*(_ymax-_ymin)+(_zmax-_zmin)*(_zmax-_zmin)
_ASMDIAG=SQRT(_ASMDIAG)
/wb,contact,start          !  starting to send contact
/com,*********** Create Contact "Frictional - Solid To Solid" ***********
/com,            Real Constant Set For Above Contact Is 5 & 4 
*set,tid,5
*set,cid,4
r,tid
r,cid
et,tid,170
et,cid,174
eblock,10,,,887
(15i9)
    10606        5        5        5        0     6932     6998     7096     7096    11480    11901     7096    11482
    10607        5        5        5        0     6864     6992     7099     7099    10965    11870     7099    10966
    10608        5        5        5        0     6854     6997     7017     7017    10880    11895     7017    10881
    10609        5        5        5        0     6856     7207     6985     6985    10900    11821     6985    10896
    10610        5        5        5        0     6861     6985     7205     7205    10936    11820     7205    10940
    10611        5        5        5        0     6908     6963     7112     7112    11318    11691     7112    11321
    10612        5        5        5        0     6911     7021     7066     7066    11337    12010     7066    11338
    10613        5        5        5        0     6868     6879     7037     7037    11003    11100     7037    11004
    10614        5        5        5        0     7125     7045     6962     6962    12122    11683     6962    11685
    10615        5        5        5        0     6867     7236     7146     7146    10999    12477     7146    10998
    10616        5        5        5        0     6937     7189     6971     6971    11519    11743     6971    11517
    10617        5        5        5        0     6869     6881     6890     6890    11010    11117     6890    11011
    10618        5        5        5        0     6870     7034     7172     7172    11021    12077     7172    11024
    10619        5        5        5        0     7013     7195     7194     7194    11979    12600     7194    11978
    10620        5        5        5        0     6888     7005     6969     6969    11179    11727     6969    11177
    10621        5        5        5        0     6964     7099     7115     7115    11696    12333     7115    11698
    10622        5        5        5        0     6857     7034     6966     6966    10906    11707     6966    10904
    10623        5        5        5        0     6908     7094     7033     7033    11320    12072     7033    11319
    10624        5        5        5        0     6888     6974     7005     7005    11178    11758     7005    11179
    10625        5        5        5        0     6925     7043     7067     7067    11428    12113     7067    11430
! ... 868 like lines cut
eblock,10,,,887
(15i9)
    11493        4        4        4        0     6932     6998     7096     7096    11480    11901     7096    11482
    11494        4        4        4        0     6864     6992     7099     7099    10965    11870     7099    10966
    11495        4        4        4        0     6854     6997     7017     7017    10880    11895     7017    10881
    11496        4        4        4        0     6856     7207     6985     6985    10900    11821     6985    10896
    11497        4        4        4        0     6861     6985     7205     7205    10936    11820     7205    10940
    11498        4        4        4        0     6908     6963     7112     7112    11318    11691     7112    11321
    11499        4        4        4        0     6911     7021     7066     7066    11337    12010     7066    11338
    11500        4        4        4        0     6868     6879     7037     7037    11003    11100     7037    11004
    11501        4        4        4        0     7125     7045     6962     6962    12122    11683     6962    11685
    11502        4        4        4        0     6867     7236     7146     7146    10999    12477     7146    10998
    11503        4        4        4        0     6937     7189     6971     6971    11519    11743     6971    11517
    11504        4        4        4        0     6869     6881     6890     6890    11010    11117     6890    11011
    11505        4        4        4        0     6870     7034     7172     7172    11021    12077     7172    11024
    11506        4        4        4        0     7013     7195     7194     7194    11979    12600     7194    11978
    11507        4        4        4        0     6888     7005     6969     6969    11179    11727     6969    11177
    11508        4        4        4        0     6964     7099     7115     7115    11696    12333     7115    11698
    11509        4        4        4        0     6857     7034     6966     6966    10906    11707     6966    10904
    11510        4        4        4        0     6908     7094     7033     7033    11320    12072     7033    11319
    11511        4        4        4        0     6888     6974     7005     7005    11178    11758     7005    11179
    11512        4        4        4        0     6925     7043     7067     7067    11428    12113     7067    11430
! ... 868 like lines cut
eblock,10,,,36
(15i9)
    12380        4        5        4        0      254      917      612      612     2950     4857      612     2944
    12381        4        5        4        0      132      917      914      914     2131     5680      914     2130
    12382        4        5        4        0      254      914      917      917     2949     5680      917     2950
    12383        4        5        4        0      254      613      914      914     2945     4864      914     2949
    12384        4        5        4        0      253      914      613      613     2942     4864      613     2937
    12385        4        5        4        0      134      135      915      915     2139     2145      915     2140
    12386        4        5        4        0      610      916      915      915     4847     5686      915     4846
    12387        4        5        4        0      257      915      703      703     2973     5180      703     2970
    12388        4        5        4        0      253      702      914      914     2939     5174      914     2942
    12389        4        5        4        0      162      669      701      701     2285     5047      701     2287
    12390        4        5        4        0      135      200      915      915     2144     2599      915     2145
    12391        4        5        4        0      134      915      916      916     2140     5686      916     2141
    12392        4        5        4        0      256      611      916      916     2960     4851      916     2964
    12393        4        5        4        0      200      258      915      915     2596     2983      915     2599
    12394        4        5        4        0      257      610      915      915     2968     4846      915     2973
    12395        4        5        4        0      133      134      916      916     2134     2141      916     2135
    12396        4        5        4        0      133      916      917      917     2135     5694      917     2136
    12397        4        5        4        0      255      612      917      917     2954     4857      917     2956
    12398        4        5        4        0      255      917      611      611     2956     4852      611     2953
    12399        4        5        4        0      258      703      915      915     2979     5180      915     2983
! ... 17 like lines cut
eblock,10,,,36
(15i9)
    12416        5        4        5        0      254      917      612      612     2950     4857      612     2944
    12417        5        4        5        0      132      917      914      914     2131     5680      914     2130
    12418        5        4        5        0      254      914      917      917     2949     5680      917     2950
    12419        5        4        5        0      254      613      914      914     2945     4864      914     2949
    12420        5        4        5        0      253      914      613      613     2942     4864      613     2937
    12421        5        4        5        0      134      135      915      915     2139     2145      915     2140
    12422        5        4        5        0      610      916      915      915     4847     5686      915     4846
    12423        5        4        5        0      257      915      703      703     2973     5180      703     2970
    12424        5        4        5        0      253      702      914      914     2939     5174      914     2942
    12425        5        4        5        0      162      669      701      701     2285     5047      701     2287
    12426        5        4        5        0      135      200      915      915     2144     2599      915     2145
    12427        5        4        5        0      134      915      916      916     2140     5686      916     2141
    12428        5        4        5        0      256      611      916      916     2960     4851      916     2964
    12429        5        4        5        0      200      258      915      915     2596     2983      915     2599
    12430        5        4        5        0      257      610      915      915     2968     4846      915     2973
    12431        5        4        5        0      133      134      916      916     2134     2141      916     2135
    12432        5        4        5        0      133      916      917      917     2135     5694      917     2136
    12433        5        4        5        0      255      612      917      917     2954     4857      917     2956
    12434        5        4        5        0      255      917      611      611     2956     4852      611     2953
    12435        5        4        5        0      258      703      915      915     2979     5180      915     2983
! ... 17 like lines cut
keyo,cid,8,2               ! auto create asymmetric contact (from Program Controlled setting)
keyo,cid,10,0              ! adjust contact stiffness each NR iteration (from Program Controlled setting)
keyo,cid,12,0              ! standard contact
mp,mu,cid,0.22      ! unitless
keyo,cid,2,0               ! augmented Lagrange (from Program Controlled setting)
keyo,cid,4,0               ! on Gauss point (from Program Controlled setting)
keyo,cid,9,0               ! use real geometry with stepped effects
keyo,cid,7,0               ! No Prediction
rmod,tid,3,1.       ! FKN
rmod,tid,5,0.       ! ICONT
rmod,tid,6,0.       ! PINB
rmod,tid,10,0.      ! CNOF
rmod,tid,12,0.      ! FKT
rmod,tid,36,62      ! WB DSID
rmod,cid,3,1.       ! FKN
rmod,cid,5,0.       ! ICONT
rmod,cid,6,0.       ! PINB
rmod,cid,10,0.      ! CNOF
rmod,cid,12,0.      ! FKT
rmod,cid,36,62      ! WB DSID
/com,*********** Create Contact "Frictional - Solid To Solid" ***********
/com,            Real Constant Set For Above Contact Is 7 & 6 
*set,tid,7
*set,cid,6
r,tid
r,cid
et,tid,170
et,cid,174
eblock,10,,,859
(15i9)
    12452        7        7        7        0     6559     6647     6633     6633     9748    10131     6633     9747
    12453        7        7        7        0     6532     6661     6830     6830     9554    10257     6830     9557
    12454        7        7        7        0     6497     6732     6679     6679     9299    10331     6679     9297
    12455        7        7        7        0     6588     6689     6739     6739     9919    10359     6739     9921
    12456        7        7        7        0     6535     6797     6667     6667     9573    10284     6667     9571
    12457        7        7        7        0     6481     6503     6494     6494     9172     9273     6494     9171
    12458        7        7        7        0     6486     6653     6819     6819     9215    10221     6819     9216
    12459        7        7        7        0     6534     6664     6832     6832     9565    10269     6832     9568
    12460        7        7        7        0     6467     6626     6593     6593     9057     9951     6593     9056
    12461        7        7        7        0     6489     6624     6572     6572     9241     9833     6572     9237
    12462        7        7        7        0     6586     6761     6681     6681     9908    10340     6681     9907
    12463        7        7        7        0     6469     6646     6583     6583     9075     9888     6583     9073
    12464        7        7        7        0     6577     6705     6754     6754     9856    10408     6754     9859
    12465        7        7        7        0     6521     6755     6601     6601     9479     9983     6601     9476
    12466        7        7        7        0     6542     6791     6616     6616     9617    10063     6616     9614
    12467        7        7        7        0     6473     6770     6817     6817     9106    10581     6817     9108
    12468        7        7        7        0     6584     6747     6758     6758     9897    10528     6758     9898
    12469        7        7        7        0     6457     6669     6696     6696     8973    10293     6696     8974
    12470        7        7        7        0     6461     6614     6511     6511     9006     9401     6511     9004
    12471        7        7        7        0     6484     6679     6607     6607     9199    10015     6607     9196
! ... 840 like lines cut
eblock,10,,,859
(15i9)
    13311        6        6        6        0     6559     6647     6633     6633     9748    10131     6633     9747
    13312        6        6        6        0     6532     6661     6830     6830     9554    10257     6830     9557
    13313        6        6        6        0     6497     6732     6679     6679     9299    10331     6679     9297
    13314        6        6        6        0     6588     6689     6739     6739     9919    10359     6739     9921
    13315        6        6        6        0     6535     6797     6667     6667     9573    10284     6667     9571
    13316        6        6        6        0     6481     6503     6494     6494     9172     9273     6494     9171
    13317        6        6        6        0     6486     6653     6819     6819     9215    10221     6819     9216
    13318        6        6        6        0     6534     6664     6832     6832     9565    10269     6832     9568
    13319        6        6        6        0     6467     6626     6593     6593     9057     9951     6593     9056
    13320        6        6        6        0     6489     6624     6572     6572     9241     9833     6572     9237
    13321        6        6        6        0     6586     6761     6681     6681     9908    10340     6681     9907
    13322        6        6        6        0     6469     6646     6583     6583     9075     9888     6583     9073
    13323        6        6        6        0     6577     6705     6754     6754     9856    10408     6754     9859
    13324        6        6        6        0     6521     6755     6601     6601     9479     9983     6601     9476
    13325        6        6        6        0     6542     6791     6616     6616     9617    10063     6616     9614
    13326        6        6        6        0     6473     6770     6817     6817     9106    10581     6817     9108
    13327        6        6        6        0     6584     6747     6758     6758     9897    10528     6758     9898
    13328        6        6        6        0     6457     6669     6696     6696     8973    10293     6696     8974
    13329        6        6        6        0     6461     6614     6511     6511     9006     9401     6511     9004
    13330        6        6        6        0     6484     6679     6607     6607     9199    10015     6607     9196
! ... 840 like lines cut
eblock,10,,,36
(15i9)
    14170        6        7        6        0       62      920      207      207     1566     2663      207     1563
    14171        6        7        6        0       32      921       33       33     1303     1313       33     1297
    14172        6        7        6        0      203      919      544      544     2630     4594      544     2625
    14173        6        7        6        0      205      547      921      921     2643     4609      921     2647
    14174        6        7        6        0       33      920       34       34     1312     1321       34     1307
    14175        6        7        6        0       34      920       62       62     1321     1566       62     1316
    14176        6        7        6        0      206      920      547      547     2654     4608      547     2649
    14177        6        7        6        0       30      919       31       31     1285     1293       31     1279
    14178        6        7        6        0       33      921      920      920     1313     5720      920     1312
    14179        6        7        6        0      202      544      919      919     2617     4594      919     2622
    14180        6        7        6        0      207      688      653      653     2660     4981      653     2658
    14181        6        7        6        0       63      685      668      668     1576     5043      668     1575
    14182        6        7        6        0       29       34       62       62     1267     1316       62     1269
    14183        6        7        6        0       62      207      653      653     1563     2658      653     1564
    14184        6        7        6        0       61      653      688      688     1553     4981      688     1555
    14185        6        7        6        0       31      922       32       32     1294     1304       32     1289
    14186        6        7        6        0      206      687      920      920     2651     5126      920     2654
    14187        6        7        6        0      202      919      686      686     2622     5119      686     2619
    14188        6        7        6        0      205      921      546      546     2647     4602      546     2642
    14189        6        7        6        0      547      920      921      921     4608     5720      921     4609
! ... 17 like lines cut
eblock,10,,,36
(15i9)
    14206        7        6        7        0       62      920      207      207     1566     2663      207     1563
    14207        7        6        7        0       32      921       33       33     1303     1313       33     1297
    14208        7        6        7        0      203      919      544      544     2630     4594      544     2625
    14209        7        6        7        0      205      547      921      921     2643     4609      921     2647
    14210        7        6        7        0       33      920       34       34     1312     1321       34     1307
    14211        7        6        7        0       34      920       62       62     1321     1566       62     1316
    14212        7        6        7        0      206      920      547      547     2654     4608      547     2649
    14213        7        6        7        0       30      919       31       31     1285     1293       31     1279
    14214        7        6        7        0       33      921      920      920     1313     5720      920     1312
    14215        7        6        7        0      202      544      919      919     2617     4594      919     2622
    14216        7        6        7        0      207      688      653      653     2660     4981      653     2658
    14217        7        6        7        0       63      685      668      668     1576     5043      668     1575
    14218        7        6        7        0       29       34       62       62     1267     1316       62     1269
    14219        7        6        7        0       62      207      653      653     1563     2658      653     1564
    14220        7        6        7        0       61      653      688      688     1553     4981      688     1555
    14221        7        6        7        0       31      922       32       32     1294     1304       32     1289
    14222        7        6        7        0      206      687      920      920     2651     5126      920     2654
    14223        7        6        7        0      202      919      686      686     2622     5119      686     2619
    14224        7        6        7        0      205      921      546      546     2647     4602      546     2642
    14225        7        6        7        0      547      920      921      921     4608     5720      921     4609
! ... 17 like lines cut
keyo,cid,8,2               ! auto create asymmetric contact (from Program Controlled setting)
keyo,cid,10,0              ! adjust contact stiffness each NR iteration (from Program Controlled setting)
keyo,cid,12,0              ! standard contact
mp,mu,cid,0.22      ! unitless
keyo,cid,2,0               ! augmented Lagrange (from Program Controlled setting)
keyo,cid,4,0               ! on Gauss point (from Program Controlled setting)
keyo,cid,9,0               ! use real geometry with stepped effects
keyo,cid,7,0               ! No Prediction
rmod,tid,3,1.       ! FKN
rmod,tid,5,0.       ! ICONT
rmod,tid,6,0.       ! PINB
rmod,tid,10,0.      ! CNOF
rmod,tid,12,0.      ! FKT
rmod,tid,36,65      ! WB DSID
rmod,cid,3,1.       ! FKN
rmod,cid,5,0.       ! ICONT
rmod,cid,6,0.       ! PINB
rmod,cid,10,0.      ! CNOF
rmod,cid,12,0.      ! FKT
rmod,cid,36,65      ! WB DSID
/com,*********** Create Contact "Contact Region" ***********
/com,            Real Constant Set For Above Contact Is 9 & 8 
*set,tid,9
*set,cid,8
r,tid
r,cid
et,tid,170
et,cid,174
eblock,10,,,90
(15i9)
    14242        9        9        9        0      115      130      116      116     1996     2004      116     1995
    14243        9        9        9        0      119      133      132      132     2033     2129      132     2032
    14244        9        9        9        0      116      135      117      117     2005     2014      117     2003
    14245        9        9        9        0      115      161      130      130     1997     2122      130     1996
    14246        9        9        9        0      117      134      118      118     2013     2022      118     2012
    14247        9        9        9        0      116      130      135      135     2004     2121      135     2005
    14248        9        9        9        0      118      134      133      133     2022     2134      133     2021
    14249        9        9        9        0      117      135      134      134     2014     2139      134     2013
    14250        9        9        9        0      118      133      119      119     2021     2033      119     2020
    14251        9        9        9        0      120      129      121      121     2039     2047      121     2038
    14252        9        9        9        0      119      132      131      131     2032     2124      131     2031
    14253        9        9        9        0      121      129      136      136     2047     2116      136     2048
    14254        9        9        9        0      119      131      120      120     2031     2040      120     2030
    14255        9        9        9        0      120      131      129      129     2040     2115      129     2039
    14256        9        9        9        0      162      290      712      712     2284     3153      712     2288
    14257        9        9        9        0      162      712      670      670     2288     5051      670     2286
    14258        9        9        9        0      290      701      783      783     3152     5166      783     3154
    14259        9        9        9        0      162      701      290      290     2287     3152      290     2284
    14260        9        9        9        0      253      647      784      784     2938     4964      784     2940
    14261        9        9        9        0      253      784      702      702     2940     5172      702     2939
! ... 71 like lines cut
eblock,10,,,90
(15i9)
    14332        8        8        8        0      115      130      116      116     1996     2004      116     1995
    14333        8        8        8        0      119      133      132      132     2033     2129      132     2032
    14334        8        8        8        0      116      135      117      117     2005     2014      117     2003
    14335        8        8        8        0      115      161      130      130     1997     2122      130     1996
    14336        8        8        8        0      117      134      118      118     2013     2022      118     2012
    14337        8        8        8        0      116      130      135      135     2004     2121      135     2005
    14338        8        8        8        0      118      134      133      133     2022     2134      133     2021
    14339        8        8        8        0      117      135      134      134     2014     2139      134     2013
    14340        8        8        8        0      118      133      119      119     2021     2033      119     2020
    14341        8        8        8        0      120      129      121      121     2039     2047      121     2038
    14342        8        8        8        0      119      132      131      131     2032     2124      131     2031
    14343        8        8        8        0      121      129      136      136     2047     2116      136     2048
    14344        8        8        8        0      119      131      120      120     2031     2040      120     2030
    14345        8        8        8        0      120      131      129      129     2040     2115      129     2039
    14346        8        8        8        0      162      290      712      712     2284     3153      712     2288
    14347        8        8        8        0      162      712      670      670     2288     5051      670     2286
    14348        8        8        8        0      290      701      783      783     3152     5166      783     3154
    14349        8        8        8        0      162      701      290      290     2287     3152      290     2284
    14350        8        8        8        0      253      647      784      784     2938     4964      784     2940
    14351        8        8        8        0      253      784      702      702     2940     5172      702     2939
! ... 71 like lines cut
eblock,10,,,887
(15i9)
    14422        8        9        8        0     6932     6998     7096     7096    11480    11901     7096    11482
    14423        8        9        8        0     6864     6992     7099     7099    10965    11870     7099    10966
    14424        8        9        8        0     6854     6997     7017     7017    10880    11895     7017    10881
    14425        8        9        8        0     6856     7207     6985     6985    10900    11821     6985    10896
    14426        8        9        8        0     6861     6985     7205     7205    10936    11820     7205    10940
    14427        8        9        8        0     6908     6963     7112     7112    11318    11691     7112    11321
    14428        8        9        8        0     6911     7021     7066     7066    11337    12010     7066    11338
    14429        8        9        8        0     6868     6879     7037     7037    11003    11100     7037    11004
    14430        8        9        8        0     7125     7045     6962     6962    12122    11683     6962    11685
    14431        8        9        8        0     6867     7236     7146     7146    10999    12477     7146    10998
    14432        8        9        8        0     6937     7189     6971     6971    11519    11743     6971    11517
    14433        8        9        8        0     6869     6881     6890     6890    11010    11117     6890    11011
    14434        8        9        8        0     6870     7034     7172     7172    11021    12077     7172    11024
    14435        8        9        8        0     7013     7195     7194     7194    11979    12600     7194    11978
    14436        8        9        8        0     6888     7005     6969     6969    11179    11727     6969    11177
    14437        8        9        8        0     6964     7099     7115     7115    11696    12333     7115    11698
    14438        8        9        8        0     6857     7034     6966     6966    10906    11707     6966    10904
    14439        8        9        8        0     6908     7094     7033     7033    11320    12072     7033    11319
    14440        8        9        8        0     6888     6974     7005     7005    11178    11758     7005    11179
    14441        8        9        8        0     6925     7043     7067     7067    11428    12113     7067    11430
! ... 868 like lines cut
eblock,10,,,887
(15i9)
    15309        9        8        9        0     6932     6998     7096     7096    11480    11901     7096    11482
    15310        9        8        9        0     6864     6992     7099     7099    10965    11870     7099    10966
    15311        9        8        9        0     6854     6997     7017     7017    10880    11895     7017    10881
    15312        9        8        9        0     6856     7207     6985     6985    10900    11821     6985    10896
    15313        9        8        9        0     6861     6985     7205     7205    10936    11820     7205    10940
    15314        9        8        9        0     6908     6963     7112     7112    11318    11691     7112    11321
    15315        9        8        9        0     6911     7021     7066     7066    11337    12010     7066    11338
    15316        9        8        9        0     6868     6879     7037     7037    11003    11100     7037    11004
    15317        9        8        9        0     7125     7045     6962     6962    12122    11683     6962    11685
    15318        9        8        9        0     6867     7236     7146     7146    10999    12477     7146    10998
    15319        9        8        9        0     6937     7189     6971     6971    11519    11743     6971    11517
    15320        9        8        9        0     6869     6881     6890     6890    11010    11117     6890    11011
    15321        9        8        9        0     6870     7034     7172     7172    11021    12077     7172    11024
    15322        9        8        9        0     7013     7195     7194     7194    11979    12600     7194    11978
    15323        9        8        9        0     6888     7005     6969     6969    11179    11727     6969    11177
    15324        9        8        9        0     6964     7099     7115     7115    11696    12333     7115    11698
    15325        9        8        9        0     6857     7034     6966     6966    10906    11707     6966    10904
    15326        9        8        9        0     6908     7094     7033     7033    11320    12072     7033    11319
    15327        9        8        9        0     6888     6974     7005     7005    11178    11758     7005    11179
    15328        9        8        9        0     6925     7043     7067     7067    11428    12113     7067    11430
! ... 868 like lines cut
keyo,cid,8,2               ! auto create asymmetric contact (from Program Controlled setting)
keyo,cid,10,0              ! adjust contact stiffness each NR iteration (from Program Controlled setting)
keyo,cid,12,5              ! bonded always
keyo,cid,18,1              ! small sliding turned on by application
keyo,cid,2,0               ! augmented Lagrange (from Program Controlled setting)
keyo,cid,4,0               ! on Gauss point (from Program Controlled setting)
keyo,cid,9,1               ! ignore initial gaps/penetration
keyo,cid,7,0               ! No Prediction
rmod,tid,3,1.       ! FKN
rmod,tid,5,0.       ! ICONT
rmod,tid,6,0.       ! PINB
rmod,tid,10,0.      ! CNOF
rmod,tid,12,0.      ! FKT
rmod,tid,36,90      ! WB DSID
rmod,cid,3,1.       ! FKN
rmod,cid,5,0.       ! ICONT
rmod,cid,6,0.       ! PINB
rmod,cid,10,0.      ! CNOF
rmod,cid,12,0.      ! FKT
rmod,cid,36,90      ! WB DSID
/com,*********** Create Contact "Contact Region 2" ***********
/com,            Real Constant Set For Above Contact Is 11 & 10 
*set,tid,11
*set,cid,10
r,tid
r,cid
et,tid,170
et,cid,174
eblock,10,,,90
(15i9)
    16196       11       11       11        0       21       60       28       28     1213     1258       28     1211
    16197       11       11       11        0       15       29       35       35     1175     1268       35     1176
    16198       11       11       11        0       20       28       30       30     1205     1257       30     1206
    16199       11       11       11        0       20       21       28       28     1204     1211       28     1205
    16200       11       11       11        0       32       33       18       18     1297     1195       18     1194
    16201       11       11       11        0       19       30       31       31     1200     1279       31     1201
    16202       11       11       11        0       16       17       34       34     1180     1188       34     1182
    16203       11       11       11        0       19       20       30       30     1199     1206       30     1200
    16204       11       11       11        0       18       31       32       32     1193     1289       32     1194
    16205       11       11       11        0       18       19       31       31     1192     1201       31     1193
    16206       11       11       11        0       17       33       34       34     1187     1307       34     1188
    16207       11       11       11        0       16       34       29       29     1182     1267       29     1181
    16208       11       11       11        0       18       33       17       17     1195     1187       17     1186
    16209       11       11       11        0       15       16       29       29     1174     1181       29     1175
    16210       11       11       11        0       61      688      232      232     1555     2813      232     1552
    16211       11       11       11        0      232      688      747      747     2813     5129      747     2815
    16212       11       11       11        0       61      695      654      654     1556     4985      654     1554
    16213       11       11       11        0      589      547      234      234     4605     2823      234     2824
    16214       11       11       11        0      207      747      688      688     2661     5129      688     2660
    16215       11       11       11        0      233      687      748      748     2819     5123      748     2820
! ... 71 like lines cut
eblock,10,,,90
(15i9)
    16286       10       10       10        0       21       60       28       28     1213     1258       28     1211
    16287       10       10       10        0       15       29       35       35     1175     1268       35     1176
    16288       10       10       10        0       20       28       30       30     1205     1257       30     1206
    16289       10       10       10        0       20       21       28       28     1204     1211       28     1205
    16290       10       10       10        0       32       33       18       18     1297     1195       18     1194
    16291       10       10       10        0       19       30       31       31     1200     1279       31     1201
    16292       10       10       10        0       16       17       34       34     1180     1188       34     1182
    16293       10       10       10        0       19       20       30       30     1199     1206       30     1200
    16294       10       10       10        0       18       31       32       32     1193     1289       32     1194
    16295       10       10       10        0       18       19       31       31     1192     1201       31     1193
    16296       10       10       10        0       17       33       34       34     1187     1307       34     1188
    16297       10       10       10        0       16       34       29       29     1182     1267       29     1181
    16298       10       10       10        0       18       33       17       17     1195     1187       17     1186
    16299       10       10       10        0       15       16       29       29     1174     1181       29     1175
    16300       10       10       10        0       61      688      232      232     1555     2813      232     1552
    16301       10       10       10        0      232      688      747      747     2813     5129      747     2815
    16302       10       10       10        0       61      695      654      654     1556     4985      654     1554
    16303       10       10       10        0      589      547      234      234     4605     2823      234     2824
    16304       10       10       10        0      207      747      688      688     2661     5129      688     2660
    16305       10       10       10        0      233      687      748      748     2819     5123      748     2820
! ... 71 like lines cut
eblock,10,,,859
(15i9)
    16376       10       11       10        0     6559     6647     6633     6633     9748    10131     6633     9747
    16377       10       11       10        0     6532     6661     6830     6830     9554    10257     6830     9557
    16378       10       11       10        0     6497     6732     6679     6679     9299    10331     6679     9297
    16379       10       11       10        0     6588     6689     6739     6739     9919    10359     6739     9921
    16380       10       11       10        0     6535     6797     6667     6667     9573    10284     6667     9571
    16381       10       11       10        0     6481     6503     6494     6494     9172     9273     6494     9171
    16382       10       11       10        0     6486     6653     6819     6819     9215    10221     6819     9216
    16383       10       11       10        0     6534     6664     6832     6832     9565    10269     6832     9568
    16384       10       11       10        0     6467     6626     6593     6593     9057     9951     6593     9056
    16385       10       11       10        0     6489     6624     6572     6572     9241     9833     6572     9237
    16386       10       11       10        0     6586     6761     6681     6681     9908    10340     6681     9907
    16387       10       11       10        0     6469     6646     6583     6583     9075     9888     6583     9073
    16388       10       11       10        0     6577     6705     6754     6754     9856    10408     6754     9859
    16389       10       11       10        0     6521     6755     6601     6601     9479     9983     6601     9476
    16390       10       11       10        0     6542     6791     6616     6616     9617    10063     6616     9614
    16391       10       11       10        0     6473     6770     6817     6817     9106    10581     6817     9108
    16392       10       11       10        0     6584     6747     6758     6758     9897    10528     6758     9898
    16393       10       11       10        0     6457     6669     6696     6696     8973    10293     6696     8974
    16394       10       11       10        0     6461     6614     6511     6511     9006     9401     6511     9004
    16395       10       11       10        0     6484     6679     6607     6607     9199    10015     6607     9196
! ... 840 like lines cut
eblock,10,,,859
(15i9)
    17235       11       10       11        0     6559     6647     6633     6633     9748    10131     6633     9747
    17236       11       10       11        0     6532     6661     6830     6830     9554    10257     6830     9557
    17237       11       10       11        0     6497     6732     6679     6679     9299    10331     6679     9297
    17238       11       10       11        0     6588     6689     6739     6739     9919    10359     6739     9921
    17239       11       10       11        0     6535     6797     6667     6667     9573    10284     6667     9571
    17240       11       10       11        0     6481     6503     6494     6494     9172     9273     6494     9171
    17241       11       10       11        0     6486     6653     6819     6819     9215    10221     6819     9216
    17242       11       10       11        0     6534     6664     6832     6832     9565    10269     6832     9568
    17243       11       10       11        0     6467     6626     6593     6593     9057     9951     6593     9056
    17244       11       10       11        0     6489     6624     6572     6572     9241     9833     6572     9237
    17245       11       10       11        0     6586     6761     6681     6681     9908    10340     6681     9907
    17246       11       10       11        0     6469     6646     6583     6583     9075     9888     6583     9073
    17247       11       10       11        0     6577     6705     6754     6754     9856    10408     6754     9859
    17248       11       10       11        0     6521     6755     6601     6601     9479     9983     6601     9476
    17249       11       10       11        0     6542     6791     6616     6616     9617    10063     6616     9614
    17250       11       10       11        0     6473     6770     6817     6817     9106    10581     6817     9108
    17251       11       10       11        0     6584     6747     6758     6758     9897    10528     6758     9898
    17252       11       10       11        0     6457     6669     6696     6696     8973    10293     6696     8974
    17253       11       10       11        0     6461     6614     6511     6511     9006     9401     6511     9004
    17254       11       10       11        0     6484     6679     6607     6607     9199    10015     6607     9196
! ... 840 like lines cut
keyo,cid,8,2               ! auto create asymmetric contact (from Program Controlled setting)
keyo,cid,10,0              ! adjust contact stiffness each NR iteration (from Program Controlled setting)
keyo,cid,12,5              ! bonded always
keyo,cid,18,1              ! small sliding turned on by application
keyo,cid,2,0               ! augmented Lagrange (from Program Controlled setting)
keyo,cid,4,0               ! on Gauss point (from Program Controlled setting)
keyo,cid,9,1               ! ignore initial gaps/penetration
keyo,cid,7,0               ! No Prediction
rmod,tid,3,1.       ! FKN
rmod,tid,5,0.       ! ICONT
rmod,tid,6,0.       ! PINB
rmod,tid,10,0.      ! CNOF
rmod,tid,12,0.      ! FKT
rmod,tid,36,93      ! WB DSID
rmod,cid,3,1.       ! FKN
rmod,cid,5,0.       ! ICONT
rmod,cid,6,0.       ! PINB
rmod,cid,10,0.      ! CNOF
rmod,cid,12,0.      ! FKT
rmod,cid,36,93      ! WB DSID
nsel,all
esel,all
/wb,contact,end            !  done creating contacts
/golist
/wb,load,start             !  starting to send loads
/com,*********** Create Displacement Components For Use In Future MSUP or Multistage Analysis ******
CMBLOCK,_CM68_DISP,NODE,     4132
(8i10)
      6208      6209      6210      6211      6212      6213      6214      6215
      6216      6217      6218      6219      6220      6221      6222      6223
      6224      6225      6226      6227      6228      6229      6230      6231
      6232      6233      6234      6235      6236      6237      6238      6239
      6240      6241      6242      6243      6244      6245      6246      6247
      6248      6249      6250      6251      6252      6253      6254      6255
      6256      6257      6258      6259      6260      6261      6262      6263
      6264      6265      6266      6267      6268      6269      6270      6271
      6272      6273      6274      6275      6276      6277      6278      6279
      6280      6281      6282      6283      6284      6285      6286      6287
      6288      6289      6290      6291      6292      6293      6294      6295
      6296      6297      6298      6299      6300      6301      6302      6303
      6304      6305      6306      6307      6308      6309      6310      6311
      6312      6313      6314      6315      6316      6317      6318      6319
      6320      6321      6322      6323      6324      6325      6326      6327
      6328      6329      6330      6331      6332      6333      6334      6335
      6336      6337      6338      6339      6340      6341      6342      6343
      6344      6345      6346      6347      6348      6349      6350      6351
      6352      6353      6354      6355      6356      6357      6358      6359
      6360      6361      6362      6363      6364      6365      6366      6367
! ... 497 like lines cut
/com,******* Constant Zero Displacement X *******
CMBLOCK,_DISPZEROUX,NODE,     4132
(8i10)
      6208      6209      6210      6211      6212      6213      6214      6215
      6216      6217      6218      6219      6220      6221      6222      6223
      6224      6225      6226      6227      6228      6229      6230      6231
      6232      6233      6234      6235      6236      6237      6238      6239
      6240      6241      6242      6243      6244      6245      6246      6247
      6248      6249      6250      6251      6252      6253      6254      6255
      6256      6257      6258      6259      6260      6261      6262      6263
      6264      6265      6266      6267      6268      6269      6270      6271
      6272      6273      6274      6275      6276      6277      6278      6279
      6280      6281      6282      6283      6284      6285      6286      6287
      6288      6289      6290      6291      6292      6293      6294      6295
      6296      6297      6298      6299      6300      6301      6302      6303
      6304      6305      6306      6307      6308      6309      6310      6311
      6312      6313      6314      6315      6316      6317      6318      6319
      6320      6321      6322      6323      6324      6325      6326      6327
      6328      6329      6330      6331      6332      6333      6334      6335
      6336      6337      6338      6339      6340      6341      6342      6343
      6344      6345      6346      6347      6348      6349      6350      6351
      6352      6353      6354      6355      6356      6357      6358      6359
      6360      6361      6362      6363      6364      6365      6366      6367
! ... 497 like lines cut
cmsel,s,_DISPZEROUX
d,all,ux,0
nsel,all
/com,******* Constant Zero Displacement Z *******
CMBLOCK,_DISPZEROUZ,NODE,     4132
(8i10)
      6208      6209      6210      6211      6212      6213      6214      6215
      6216      6217      6218      6219      6220      6221      6222      6223
      6224      6225      6226      6227      6228      6229      6230      6231
      6232      6233      6234      6235      6236      6237      6238      6239
      6240      6241      6242      6243      6244      6245      6246      6247
      6248      6249      6250      6251      6252      6253      6254      6255
      6256      6257      6258      6259      6260      6261      6262      6263
      6264      6265      6266      6267      6268      6269      6270      6271
      6272      6273      6274      6275      6276      6277      6278      6279
      6280      6281      6282      6283      6284      6285      6286      6287
      6288      6289      6290      6291      6292      6293      6294      6295
      6296      6297      6298      6299      6300      6301      6302      6303
      6304      6305      6306      6307      6308      6309      6310      6311
      6312      6313      6314      6315      6316      6317      6318      6319
      6320      6321      6322      6323      6324      6325      6326      6327
      6328      6329      6330      6331      6332      6333      6334      6335
      6336      6337      6338      6339      6340      6341      6342      6343
      6344      6345      6346      6347      6348      6349      6350      6351
      6352      6353      6354      6355      6356      6357      6358      6359
      6360      6361      6362      6363      6364      6365      6366      6367
! ... 497 like lines cut
cmsel,s,_DISPZEROUZ
d,all,uz,0
nsel,all
/com,*********** Create Remote Point "Internal Remote Point 4" ***********
! -------- Remote Point Used by "Joint" --------
*set,tid,13
*set,cid,12
et,cid,174
et,tid,170
keyo,tid,2,1               ! Don't fix the pilot node
keyo,tid,4,0               ! Activate all DOF's due to large deformation
keyo,cid,12,5              ! Bonded Contact 
keyo,cid,4,2               ! Rigid CERIG style load
keyo,cid,2,2               ! MPC style contact
eblock,10,,,887
(15i9)
    18094       12       12       12        0     6932     6998     7096     7096    11480    11901     7096    11482
    18095       12       12       12        0     6864     6992     7099     7099    10965    11870     7099    10966
    18096       12       12       12        0     6854     6997     7017     7017    10880    11895     7017    10881
    18097       12       12       12        0     6856     7207     6985     6985    10900    11821     6985    10896
    18098       12       12       12        0     6861     6985     7205     7205    10936    11820     7205    10940
    18099       12       12       12        0     6908     6963     7112     7112    11318    11691     7112    11321
    18100       12       12       12        0     6911     7021     7066     7066    11337    12010     7066    11338
    18101       12       12       12        0     6868     6879     7037     7037    11003    11100     7037    11004
    18102       12       12       12        0     7125     7045     6962     6962    12122    11683     6962    11685
    18103       12       12       12        0     6867     7236     7146     7146    10999    12477     7146    10998
    18104       12       12       12        0     6937     7189     6971     6971    11519    11743     6971    11517
    18105       12       12       12        0     6869     6881     6890     6890    11010    11117     6890    11011
    18106       12       12       12        0     6870     7034     7172     7172    11021    12077     7172    11024
    18107       12       12       12        0     7013     7195     7194     7194    11979    12600     7194    11978
    18108       12       12       12        0     6888     7005     6969     6969    11179    11727     6969    11177
    18109       12       12       12        0     6964     7099     7115     7115    11696    12333     7115    11698
    18110       12       12       12        0     6857     7034     6966     6966    10906    11707     6966    10904
    18111       12       12       12        0     6908     7094     7033     7033    11320    12072     7033    11319
    18112       12       12       12        0     6888     6974     7005     7005    11178    11758     7005    11179
    18113       12       12       12        0     6925     7043     7067     7067    11428    12113     7067    11430
! ... 868 like lines cut
*set,_npilot,13194
_npilot100=_npilot
type,tid
mat ,cid
real,cid
tshape,pilo
en,18981,_npilot
tshape
/com,*********** Create Remote Point "Internal Remote Point 2" ***********
! -------- Remote Point Used by "Revolute - Ground To Solid" --------
*set,tid,15
*set,cid,14
et,cid,174
et,tid,170
keyo,tid,2,1               ! Don't fix the pilot node
keyo,tid,4,0               ! Activate all DOF's due to large deformation
keyo,cid,12,5              ! Bonded Contact 
keyo,cid,4,2               ! Rigid CERIG style load
keyo,cid,2,2               ! MPC style contact
eblock,10,,,26
(15i9)
    18982       14       14       14        0      307      306      320      320     3235     3237      320     3242
    18983       14       14       14        0      306      305      319      319     3229     3231      319     3236
    18984       14       14       14        0      320      321      307      307     3332     3243      307     3242
    18985       14       14       14        0      308      307      321      321     3241     3243      321     3251
    18986       14       14       14        0      319      320      306      306     3328     3237      306     3236
    18987       14       14       14        0      318      319      305      305     3322     3231      305     3230
    18988       14       14       14        0      322      323      309      309     3342     3261      309     3260
    18989       14       14       14        0      310      309      323      323     3259     3261      323     3269
    18990       14       14       14        0      323      324      310      310     3346     3270      310     3269
    18991       14       14       14        0      311      310      324      324     3268     3270      324     3278
    18992       14       14       14        0      324      325      311      311     3350     3279      311     3278
    18993       14       14       14        0      312      311      325      325     3277     3279      325     3287
    18994       14       14       14        0      327      328      314      314     3369     3300      314     3299
    18995       14       14       14        0      315      314      328      328     3298     3300      328     3306
    18996       14       14       14        0      309      308      322      322     3250     3252      322     3260
    18997       14       14       14        0      321      322      308      308     3336     3252      308     3251
    18998       14       14       14        0      313      312      326      326     3286     3288      326     3293
    18999       14       14       14        0      325      326      312      312     3356     3288      312     3287
    19000       14       14       14        0      314      313      327      327     3292     3294      327     3299
    19001       14       14       14        0      326      327      313      313     3363     3294      313     3293
! ... 7 like lines cut
*set,_npilot,13192
_npilot53=_npilot
type,tid
mat ,cid
real,cid
tshape,pilo
en,19008,_npilot
tshape
csys,12
nrot,13192
csys,0
/com,*********** Create Remote Point "Internal Remote Point 3" ***********
! -------- Remote Point Used by "Joint" --------
*set,tid,17
*set,cid,16
et,cid,174
et,tid,170
keyo,tid,2,1               ! Don't fix the pilot node
keyo,tid,4,0               ! Activate all DOF's due to large deformation
keyo,cid,12,5              ! Bonded Contact 
keyo,cid,4,2               ! Rigid CERIG style load
keyo,cid,2,2               ! MPC style contact
eblock,10,,,62
(15i9)
    19009       16       16       16        0      106      152      107      107     1920     1928      107     1918
    19010       16       16       16        0      111      156      157      157     1961     2252      157     1962
    19011       16       16       16        0      104      149      105      105     1901     1911      105     1899
    19012       16       16       16        0      103      148      104      104     1893     1900      104     1891
    19013       16       16       16        0      107      152      153      153     1928     2231      153     1929
    19014       16       16       16        0      107      153      108      108     1929     1936      108     1927
    19015       16       16       16        0      108      154      109      109     1937     1944      109     1935
    19016       16       16       16        0      106      151      152      152     1919     2227      152     1920
    19017       16       16       16        0      109      155      110      110     1945     1952      110     1943
    19018       16       16       16        0      109      154      155      155     1944     2241      155     1945
    19019       16       16       16        0      104      148      149      149     1900     2212      149     1901
    19020       16       16       16        0      108      153      154      154     1936     2237      154     1937
    19021       16       16       16        0      105      150      151      151     1912     2222      151     1913
    19022       16       16       16        0      110      155      156      156     1952     2246      156     1953
    19023       16       16       16        0      105      151      106      106     1913     1919      106     1910
    19024       16       16       16        0      111      157      112      112     1962     1969      112     1960
    19025       16       16       16        0      105      149      150      150     1911     2218      150     1912
    19026       16       16       16        0      101      145      146      146     1876     2195      146     1877
    19027       16       16       16        0      110      156      111      111     1953     1961      111     1951
    19028       16       16       16        0      113      158      159      159     1977     2262      159     1978
! ... 43 like lines cut
*set,_npilot,13193
_npilot99=_npilot
type,tid
mat ,cid
real,cid
tshape,pilo
en,19071,_npilot
tshape
/com,*********** Create Joint "Revolute - Ground To Solid" ***********
/com,            Real Constant Set For Above Joint Is 18
! Joint Element Type Declaration and Definition using MPC184
*set,_jid,18
et,_jid,184
keyo,_jid,1,6           ! Revolute Joint
keyo,_jid,4,1           ! Z Axis is revolute axis
sectype,_jid, joint, revo, _wbjoint
secjoint,,12,12
mat,_jid
real,_jid
type,_jid
secnum,_jid
en,10600,,13192        ! body to ground joint
/com,*********** Create Joint "Joint" ***********
/com,            Real Constant Set For Above Joint Is 19
! Joint Element Type Declaration and Definition using MPC184
*set,_jid,19
et,_jid,184
keyo,_jid,1,13          ! Fixed Joint
sectype,_jid, joint, weld, _wbjoint
secjoint,,13,13
mat,_jid
real,_jid
type,_jid
secnum,_jid
en,10601,13193,13194      ! body to body joint
/com,*********** Define Pressure Using Surface Effect Elements "Pressure" ***********
et,20,154
eblock,10,,,35
(15i9)
    19072       20       20       20        0     6243     7242     6244     6244     7620     7635     6244     7612
    19073       20       20       20        0     6313     6314     7241     7241     8073     8090     7241     8079
    19074       20       20       20        0     6246     7241     6247     6247     7651     7659     6247     7645
    19075       20       20       20        0     6308     6309     6331     6331     8019     8026     6331     8022
    19076       20       20       20        0     6250     7243     6263     6263     7702     7769     6263     7698
    19077       20       20       20        0     6318     7243     6317     6317     8126     8118     6317     8115
    19078       20       20       20        0     6248     7239     6249     6249     7669     7695     6249     7665
    19079       20       20       20        0     6243     6330     7242     7242     7613     8193     7242     7620
    19080       20       20       20        0     6244     7242     7240     7240     7635    12724     7240     7634
    19081       20       20       20        0     6312     6313     7240     7240     8059     8078     7240     8064
    19082       20       20       20        0     6244     7240     6245     6245     7634     7640     6245     7625
    19083       20       20       20        0     6309     7242     6331     6331     8034     8199     6331     8026
    19084       20       20       20        0     6318     6319     7243     7243     8124     8136     7243     8126
    19085       20       20       20        0     6262     6264     6319     6319     7758     7775     6319     7761
    19086       20       20       20        0     6315     6316     7239     7239     8093     8107     7239     8094
    19087       20       20       20        0     6314     6315     7241     7241     8088     8095     7241     8090
    19088       20       20       20        0     6330     6331     7242     7242     8192     8199     7242     8193
    19089       20       20       20        0     6249     7239     7243     7243     7695    12709     7243     7696
    19090       20       20       20        0     6246     7240     7241     7241     7650    12723     7241     7651
    19091       20       20       20        0     6309     6310     7242     7242     8025     8043     7242     8034
! ... 16 like lines cut
esel,s,type,,20
keyop,20,7,0                ! Use deformed area for application of load
esel,all
/com,*********** Define Pressure Using Surface Effect Elements "Pressure 2" ***********
et,21,154
eblock,10,,,35
(15i9)
    19107       21       21       21        0     6371     6840     6839     6839     8435    10751     6839     8434
    19108       21       21       21        0     6368     6842     6838     6838     8397    10739     6838     8396
    19109       21       21       21        0     6441     6841     6839     6839     8870    10752     6839     8869
    19110       21       21       21        0     6838     6842     6435     6435    10739     8796     6435     8795
    19111       21       21       21        0     6387     6841     6388     6388     8533     8546     6388     8524
    19112       21       21       21        0     6365     6454     6367     6367     8370     8382     6367     8367
    19113       21       21       21        0     6369     6840     6370     6370     8408     8421     6370     8405
    19114       21       21       21        0     6373     6839     6841     6841     8457    10752     6841     8458
    19115       21       21       21        0     6386     6388     6443     6443     8518     8537     6443     8521
    19116       21       21       21        0     6437     6840     6838     6838     8816    10738     6838     8815
    19117       21       21       21        0     6371     6839     6372     6372     8434     8445     6372     8426
    19118       21       21       21        0     6436     6437     6838     6838     8801     8815     6838     8803
    19119       21       21       21        0     6439     6839     6840     6840     8852    10751     6840     8853
    19120       21       21       21        0     6433     6434     6842     6842     8769     8786     6842     8773
    19121       21       21       21        0     6441     6442     6841     6841     8864     8880     6841     8870
    19122       21       21       21        0     6438     6439     6840     6840     8824     8853     6840     8831
    19123       21       21       21        0     6367     6842     6368     6368     8389     8397     6368     8381
    19124       21       21       21        0     6388     6841     6443     6443     8546     8891     6443     8537
    19125       21       21       21        0     6433     6842     6455     6455     8773     8956     6455     8770
    19126       21       21       21        0     6432     6433     6455     6455     8762     8770     6455     8765
! ... 16 like lines cut
esel,s,type,,21
keyop,21,7,0                ! Use deformed area for application of load
esel,all
esel,all
/com,*********** Define Rotational Velocity ***********
esel,none
esel,a,type,,1
cm,cm_rotvelcity48,elem
esel,all
/gst,on,on
fini
*get,_numnode,node,0,count
*get,_numelem,elem,0,count
*get, _MAXELEMNUM, elem, 0, NUM, MAX
*get, _MAXNODENUM, node, 0, NUM, MAX
*get, _MAXELEMTYPE, etyp, 0, NUM, MAX
*get, _MAXREALCONST, real, 0, NUM, MAX
/go
/wb,load,end               !  done creating loads
/com,--- Number of total nodes = %_numnode%
/com,--- Number of contact elements = 8533
/com,--- Number of spring elements = 0
/com,--- Number of bearing elements = 0
/com,--- Number of solid elements = 6581
/com,--- Number of condensed parts = 0
/com,--- Number of total elements = %_numelem%
*get,_wallbsol,active,,time,wall
/com,****************************************************************************
/com,*************************    SOLUTION       ********************************
/com,****************************************************************************
/solu
antype,0                   ! static analysis
nlgeom,on                  ! Turn on Large Deformation Effects
_thickRatio=0.5     ! Ratio of thick parts in the model
eqsl,sparse,,,,,1
cntr,print,1               ! print out contact info and also make no initial contact an error
nldiag,cont,iter           ! print out contact info each equilibrium iteration
rescontrol,define,last           ! Turn on restart files due to future eigen analysis intent
/com,****************************************************
/com,******************* SOLVE FOR LS 1 OF 1 ****************
esel,s,type,,20
nsle
sf,all,pres,10495000.
esel,s,type,,21
nsle
sf,all,pres,10495000.
nsel,all
esel,all
cmom,cm_rotvelcity48,0.,250.,0.,0.000000,0.000000,0.000000
esel,all
/nopr
/gopr
autots,on                  ! Workbench Program Controlled automatic time stepping
nsub,5,20,1                ! due to presence of high frictional contact
time,1.
outres,erase
outres,all,none
outres,nsol,all,
outres,rsol,all
outres,eangl,all
outres,etmp,all
outres,veng,all
outres,strs,all,
outres,epel,all,
outres,eppl,all,
outres,cont,all,
/nopr
esel,s,type,,18
esel,a,type,,19
cm,_elmisc,elem
esel,all
/gopr
outres,misc,all,_elmisc
! *********** WB SOLVE COMMAND ***********
! check interactive state
*get,ANSINTER_,active,,int
*if,ANSINTER_,ne,0,then
/eof
*endif
solve
/com *************** Write FE CONNECTORS ********* 
CEWRITE,file,ce,,INTE
/com,****************************************************
/com,*************** FINISHED SOLVE FOR LS 1 *************
*get,_wallasol,active,,time,wall
/nopr
*get,_numnode,node,0,count
*get,_numelem,elem,0,count
*get, _MAXELEMNUM, elem, 0, NUM, MAX
*get, _MAXNODENUM, node, 0, NUM, MAX,,,INTERNAL
*get, _MAXELEMTYPE, etyp, 0, NUM, MAX
*get, _MAXREALCONST, real, 0, NUM, MAX
/gopr
/post1
xmlo,ENCODING,ISO-8859-1
xmlo,parm
/xml,parm,xml
fini
/gopr
*get,_walldone,active,,time,wall
_preptime=(_wallbsol-_wallstrt)*3600
_solvtime=(_wallasol-_wallbsol)*3600
_posttime=(_walldone-_wallasol)*3600
_totaltim=(_walldone-_wallstrt)*3600
*get,_dlbratio,active,0,solu,dlbr
*get,_combtime,active,0,solu,comb
*get,_ssmode,active,0,solu,ssmm
*get,_ndofs,active,0,solu,ndof
/com,--- Total number of nodes = %_numnode%
/com,--- Total number of elements = %_numelem%
/com,--- Element load balance ratio = %_dlbratio%
/com,--- Time to combine distributed files = %_combtime%
/com,--- Sparse memory mode = %_ssmode%
/com,--- Number of DOF = %_ndofs%
/wb,file,end               ! done with WB generated input
