/batch
/config,noeldb,1     ! force off writing results to database
*get,_wallstrt,active,,time,wall
! ANSYS input file written by Workbench version 2022 R1
! File used for geometry attach: C:\Users\Nate\Documents\Ansys\Project2\Project2_files\dp23\Geom\DM\Geom.agdb
/title,Project2--Transient Thermal (D5)
! ****** Begin Custom Load Command Snippet ******
/COM, ACT Extensions:
/COM,     LSDYNA, 2021.1
/COM,     5f463412-bd3e-484b-87e7-cbc0a665e474, wbex
/COM,
! ****** End   Custom Load Command Snippet ******
*DIM,_wb_ProjectScratch_dir,string,248
_wb_ProjectScratch_dir(1) = 'C:\Users\Nate\Documents\Ansys\Project2\_ProjectScratch\ScrA5B4\'
*DIM,_wb_SolverFiles_dir,string,248
_wb_SolverFiles_dir(1) = 'C:\Users\Nate\Documents\Ansys\Project2\Project2_files\dp23\SYS-2\MECH\'
*DIM,_wb_userfiles_dir,string,248
_wb_userfiles_dir(1) = 'C:\Users\Nate\Documents\Ansys\Project2\Project2_files\user_files\'
/com,--- Data in consistent MKS units. See Solving Units in the help system for more information.
/units,MKS
/nopr
/wb,file,start              !  signify a WB generated input file
/prep7
! Turn off shape checking because checks already performed inside WB mesher.
! See help system for more information.
SHPP,OFF,,NOWARN
/nolist
etcon,set             ! allow ANSYS to choose best KEYOP's for 180x elements, resets any applicable keyopt to MAPDL defaults
/com,*********** Nodes for the whole assembly ***********
nblock,3,,6827
(1i9,3e20.9e3)
        1    -9.413332319E-18     4.000000000E-02     7.686569160E-02
        2    -1.772644840E-02     4.000000000E-02     7.479376694E-02
        3    -3.449725938E-02     4.000000000E-02     6.868969094E-02
        4    -4.940831417E-02     4.000000000E-02     5.888253592E-02
        5    -6.165575396E-02     4.000000000E-02     4.590100815E-02
        6    -7.057931610E-02     4.000000000E-02     3.044494515E-02
        7    -7.569792903E-02     4.000000000E-02     1.334758727E-02
        8    -7.673564702E-02     4.000000000E-02    -4.469342487E-03
        9    -7.363652641E-02     4.000000000E-02    -2.204532884E-02
       10    -6.656764161E-02     4.000000000E-02    -3.843284580E-02
       11    -5.591007801E-02     4.000000000E-02    -5.274843810E-02
       12    -4.223838764E-02     4.000000000E-02    -6.422034845E-02
       13    -2.628961486E-02     4.000000000E-02    -7.223012319E-02
       14    -8.923562135E-03     4.000000000E-02    -7.634595330E-02
       15     8.923562135E-03     4.000000000E-02    -7.634595330E-02
       16     2.628961486E-02     4.000000000E-02    -7.223012319E-02
       17     4.223838764E-02     4.000000000E-02    -6.422034845E-02
       18     5.591007801E-02     4.000000000E-02    -5.274843810E-02
       19     6.656764161E-02     4.000000000E-02    -3.843284580E-02
       20     7.363652641E-02     4.000000000E-02    -2.204532884E-02
! ... 6188 like lines cut
/wb,elem,start            !  set before creation of elements
/com,*********** Elements for Body 1 "Solid" ***********
et,1,291
eblock,19,solid,,3074
(19i9)
        1        1        1        1        0        0        0        0       10        0        1       98     1075      697      988     1858     5158     1853     1855
     6089     5157
        1        1        1        1        0        0        0        0       10        0        2       98     1006     1075     1064     1856     6131     1858     1857
     6130     6206
        1        1        1        1        0        0        0        0       10        0        3      671      713     1075      988     5053     5201     5056     5055
     5200     6089
        1        1        1        1        0        0        0        0       10        0        4      165      671      713     1075     2311     5053     2313     2317
     5056     5201
        1        1        1        1        0        0        0        0       10        0        5      945     1075      968      988     5895     6033     5890     5891
     6089     6028
        1        1        1        1        0        0        0        0       10        0        6     1006     1043     1075     1064     6128     6193     6131     6130
     6191     6206
        1        1        1        1        0        0        0        0       10        0        7      165     1043     1075     1006     2316     6193     2317     2315
     6128     6131
        1        1        1        1        0        0        0        0       10        0        8      165      945     1075     1043     2314     5895     2317     2316
     5893     6193
        1        1        1        1        0        0        0        0       10        0        9      165      671     1075      945     2311     5056     2317     2314
     5054     5895
        1        1        1        1        0        0        0        0       10        0       10      732     1074      812     1018     5269     5502     5267     5268
     6163     5499
! ... 6129 like lines cut
!Material Id = {9D7C0BA9-8B46-499E-A978-EF6DFCB1D1AE}
/wb,elem,end               !  done creating elements
/com,*********** Send User Defined Coordinate System(s) ***********
csys,0
toffst,273.15,  ! Temperature offset from absolute zero
/wb,mat,start              !  starting to send materials
/com,*********** Send Materials ***********
Temperature = 'TEMP' ! Temperature
MP,DENS,1,7200,	! kg m^-3
MP,ALPX,1,1.1e-05,	! C^-1
MP,C,1,447,	! J kg^-1 C^-1
MP,KXX,1,52,	! W m^-1 C^-1
MP,RSVX,1,9.6e-08,	! kg m^3 A^-2 s^-3
MP,EX,1,110000000000,	! Pa
MP,NUXY,1,0.28,
MP,MURX,1,10000,
MP,UVID,1,e45fb210-7bd2-42b5-8b8f-d3778b8be923
MP,UMID,1,f60bcced-8a07-4217-aedb-972d67ace671

/wb,mat,end                !  done sending materials
!************************* Model Summary ********************
!Solid,	Gray Cast Iron,	matid,	1
!************************* End Model Summary ********************
! get the diagonal of the bounding box. Needed later for other things
*get,_xmin,node,,mnloc,x
*get,_ymin,node,,mnloc,y
*get,_zmin,node,,mnloc,z
*get,_xmax,node,,mxloc,x
*get,_ymax,node,,mxloc,y
*get,_zmax,node,,mxloc,z
_ASMDIAG=(_xmax-_xmin)*(_xmax-_xmin)+(_ymax-_ymin)*(_ymax-_ymin)+(_zmax-_zmin)*(_zmax-_zmin)
_ASMDIAG=SQRT(_ASMDIAG)
/wb,contact,start          !  starting to send contact
/wb,contact,end            !  done creating contacts
/golist
/wb,load,start             !  starting to send loads
/com,*********** Create "Heat Flux" ***********
et,2,152
eblock,10,,,199
(15i9)
     5029        2        2        2        0      254      917      612      612     2950     4857      612     2944
     5030        2        2        2        0      132      917      914      914     2131     5680      914     2130
     5031        2        2        2        0      254      914      917      917     2949     5680      917     2950
     5032        2        2        2        0      254      613      914      914     2945     4864      914     2949
     5033        2        2        2        0      253      914      613      613     2942     4864      613     2937
     5034        2        2        2        0      134      135      915      915     2139     2145      915     2140
     5035        2        2        2        0      610      916      915      915     4847     5686      915     4846
     5036        2        2        2        0      257      915      703      703     2973     5180      703     2970
     5037        2        2        2        0      253      702      914      914     2939     5174      914     2942
     5038        2        2        2        0      162      669      701      701     2285     5047      701     2287
     5039        2        2        2        0      135      200      915      915     2144     2599      915     2145
     5040        2        2        2        0      134      915      916      916     2140     5686      916     2141
     5041        2        2        2        0      256      611      916      916     2960     4851      916     2964
     5042        2        2        2        0      200      258      915      915     2596     2983      915     2599
     5043        2        2        2        0      257      610      915      915     2968     4846      915     2973
     5044        2        2        2        0      133      134      916      916     2134     2141      916     2135
     5045        2        2        2        0      133      916      917      917     2135     5694      917     2136
     5046        2        2        2        0      255      612      917      917     2954     4857      917     2956
     5047        2        2        2        0      255      917      611      611     2956     4852      611     2953
     5048        2        2        2        0      258      703      915      915     2979     5180      915     2983
! ... 180 like lines cut
esel,s,type,,2
keyop,2,8,1      ! include heat flux
/com,*********** Create "Heat Flux 2" ***********
et,3,152
eblock,10,,,199
(15i9)
     5228        3        3        3        0       40      952       41       41     1375     1385       41     1371
     5229        3        3        3        0       54      954      951      951     1498     5934      951     1497
     5230        3        3        3        0      552      953      728      728     4637     5255      728     4633
     5231        3        3        3        0       53      954       54       54     1489     1498       54     1483
     5232        3        3        3        0       73      657      955      955     1659     5000      955     1661
     5233        3        3        3        0       40      953      952      952     1376     5941      952     1375
     5234        3        3        3        0       41      955       42       42     1386     1391       42     1379
     5235        3        3        3        0      554      955      730      730     4647     5261      730     4645
     5236        3        3        3        0       68      948      549      549     1618     4621      549     1614
     5237        3        3        3        0      537      717      954      954     4552     5207      954     4554
     5238        3        3        3        0       89      954      664      664     1785     5025      664     1783
     5239        3        3        3        0       90      951      954      954     1792     5934      954     1793
     5240        3        3        3        0       90      954      717      717     1793     5207      717     1791
     5241        3        3        3        0       56      949       57       57     1514     1525       57     1511
     5242        3        3        3        0       63      668      667      667     1575     5037      667     1574
     5243        3        3        3        0      550      950      726      726     4626     5245      726     4624
     5244        3        3        3        0       57      949      947      947     1525     5903      947     1524
     5245        3        3        3        0       69      727      950      950     1626     5249      950     1628
     5246        3        3        3        0       68      726      950      950     1616     5245      950     1619
     5247        3        3        3        0       38      948      950      950     1357     5912      950     1358
! ... 180 like lines cut
esel,s,type,,3
keyop,3,8,1      ! include heat flux
esel,all
fcum,add                   ! add nodal forces up (needed in case have loads on the same edge,vertex)
fcum                       ! reset default on fcum command since done sending WB F loads
/com,*********** Create "Convection" ***********
et,4,152
eblock,10,,,1954
(15i9)
     5427        4        4        4        0       89      664      738      738     1783     5024      738     1784
     5428        4        4        4        0       61      688      232      232     1555     2813      232     1552
     5429        4        4        4        0       85      571      209      209     1752     2675      209     1750
     5430        4        4        4        0      250      738      664      664     2918     5024      664     2914
     5431        4        4        4        0       89      249      537      537     1780     2907      537     1781
     5432        4        4        4        0       87      700      251      251     1769     2923      251     1766
     5433        4        4        4        0      537      737      717      717     4553     5206      717     4552
     5434        4        4        4        0       89      738      570      570     1784     4713      570     1782
     5435        4        4        4        0      232      688      747      747     2813     5129      747     2815
     5436        4        4        4        0       64      654      231      231     1582     2807      231     1581
     5437        4        4        4        0       64      694      655      655     1584     4987      655     1583
     5438        4        4        4        0       61      695      654      654     1556     4985      654     1554
     5439        4        4        4        0      589      547      234      234     4605     2823      234     2824
     5440        4        4        4        0       88      250      664      664     1774     2914      664     1776
     5441        4        4        4        0      207      747      688      688     2661     5129      688     2660
     5442        4        4        4        0      233      687      748      748     2819     5123      748     2820
     5443        4        4        4        0      207      233      588      588     2656     2818      588     2657
     5444        4        4        4        0      207      588      747      747     2657     4761      747     2661
     5445        4        4        4        0      206      589      748      748     2650     4763      748     2652
     5446        4        4        4        0       88      699      250      250     1777     2916      250     1774
! ... 1935 like lines cut
esel,s,type,,4
keyop,4,8,2.
keyop,4,13,0
esel,all
/com,***************** Define Uniform Initial temperature ***************
tunif,22.
/gst,on,on
fini
*get,_numnode,node,0,count
*get,_numelem,elem,0,count
*get, _MAXELEMNUM, elem, 0, NUM, MAX
*get, _MAXNODENUM, node, 0, NUM, MAX
*get, _MAXELEMTYPE, etyp, 0, NUM, MAX
*get, _MAXREALCONST, real, 0, NUM, MAX
/go
/wb,load,end               !  done creating loads
/com,--- Number of total nodes = %_numnode%
/com,--- Number of contact elements = 2352
/com,--- Number of spring elements = 0
/com,--- Number of bearing elements = 0
/com,--- Number of solid elements = 3074
/com,--- Number of condensed parts = 0
/com,--- Number of total elements = %_numelem%
*get,_wallbsol,active,,time,wall
/com,****************************************************************************
/com,*************************    SOLUTION       ********************************
/com,****************************************************************************
/solu
antype,4                   ! transient analysis
kbc,1                      ! stepped BC's
!eqsl,sparse               ! using sparse solver which is default so no eqsl command needed
cntr,print,1               ! print out contact info and also make no initial contact an error
rescontrol,,none                 ! Do not keep any restart files
dmpoption,emat,no             ! Don't combine emat file for DANSYS
dmpoption,esav,no             ! Don't combine esav file for DANSYS
thopt,quasi,5.e-002
nlhist,nsol,MAX_TEMP,temp,max
nlhist,nsol,MIN_TEMP,temp,min
/com,********* Initial Time Increment Check And Fourier Modulus *********
/com, Specified Initial Time Increment: 0.01 
/com, Estimated Increment Needed, le*le/alpha, Body 1: 2.43298 
/com,****************************************************
/com,******************* SOLVE FOR LS 1 OF 5 ****************
esel,s,type,,2
nsle
sf,all,hflux,1539500.
esel,s,type,,3
nsle
sf,all,hflux,1539500.
nsel,all
esel,all
esel,s,type,,4
nsle
sf,all,conv,5.,35.
nsel,all
esel,all
/nopr
/gopr
autots,on
nsub,100,1000,10
time,1.
timint,on                  ! Turn on time integration effects
outres,erase
outres,all,none
outres,nsol,all
outres,rsol,all
outres,eangl,all
outres,veng,all
outres,fflux,all
outres,cont,all
/nopr
esel,s,type,,4
cm,_elmisc,elem
esel,all
/gopr
outres,misc,all,_elmisc
cnvtol,heat,,.001,,1.e-006    ! Program Controlled. Set MINREF equivalent of 1e-6 Watts
! *********** WB SOLVE COMMAND ***********
! check interactive state
*get,ANSINTER_,active,,int
*if,ANSINTER_,ne,0,then
/eof
*endif
solve
/com *************** Write FE CONNECTORS ********* 
CEWRITE,file,ce,,INTE
/com,****************************************************
/com,*************** FINISHED SOLVE FOR LS 1 *************
/com,****************************************************
/com,******************* SOLVE FOR LS 2 OF 5 ****************
/nopr
/gopr
autots,on
nsub,100,1000,10
time,2.
timint,on                  ! Turn on time integration effects
outres,erase
outres,all,none
outres,nsol,all
outres,rsol,all
outres,eangl,all
outres,veng,all
outres,fflux,all
outres,cont,all
outres,misc,all,_elmisc
cnvtol,heat,,.001,,1.e-006    ! Program Controlled. Set MINREF equivalent of 1e-6 Watts
solve
/com,****************************************************
/com,*************** FINISHED SOLVE FOR LS 2 *************
/com,****************************************************
/com,******************* SOLVE FOR LS 3 OF 5 ****************
/nopr
/gopr
autots,on
nsub,100,1000,10
time,3.
timint,on                  ! Turn on time integration effects
outres,erase
outres,all,none
outres,nsol,all
outres,rsol,all
outres,eangl,all
outres,veng,all
outres,fflux,all
outres,cont,all
outres,misc,all,_elmisc
cnvtol,heat,,.001,,1.e-006    ! Program Controlled. Set MINREF equivalent of 1e-6 Watts
solve
/com,****************************************************
/com,*************** FINISHED SOLVE FOR LS 3 *************
/com,****************************************************
/com,******************* SOLVE FOR LS 4 OF 5 ****************
/nopr
/gopr
autots,on
nsub,100,1000,10
time,4.
timint,on                  ! Turn on time integration effects
outres,erase
outres,all,none
outres,nsol,all
outres,rsol,all
outres,eangl,all
outres,veng,all
outres,fflux,all
outres,cont,all
outres,misc,all,_elmisc
cnvtol,heat,,.001,,1.e-006    ! Program Controlled. Set MINREF equivalent of 1e-6 Watts
solve
/com,****************************************************
/com,*************** FINISHED SOLVE FOR LS 4 *************
/com,****************************************************
/com,******************* SOLVE FOR LS 5 OF 5 ****************
/nopr
/gopr
autots,on
nsub,100,1000,10
time,5.
timint,on                  ! Turn on time integration effects
outres,erase
outres,all,none
outres,nsol,all
outres,rsol,all
outres,eangl,all
outres,veng,all
outres,fflux,all
outres,cont,all
outres,misc,all,_elmisc
cnvtol,heat,,.001,,1.e-006    ! Program Controlled. Set MINREF equivalent of 1e-6 Watts
solve
/com,****************************************************
/com,*************** FINISHED SOLVE FOR LS 5 *************
*get,_wallasol,active,,time,wall
/post1
xmlo,ENCODING,ISO-8859-1
xmlo,parm
/xml,parm,xml
fini
/gopr
*get,_walldone,active,,time,wall
_preptime=(_wallbsol-_wallstrt)*3600
_solvtime=(_wallasol-_wallbsol)*3600
_posttime=(_walldone-_wallasol)*3600
_totaltim=(_walldone-_wallstrt)*3600
*get,_dlbratio,active,0,solu,dlbr
*get,_combtime,active,0,solu,comb
*get,_ssmode,active,0,solu,ssmm
*get,_ndofs,active,0,solu,ndof
/fclean				!clean distributed files
/com,--- Total number of nodes = %_numnode%
/com,--- Total number of elements = %_numelem%
/com,--- Element load balance ratio = %_dlbratio%
/com,--- Time to combine distributed files = %_combtime%
/com,--- Sparse memory mode = %_ssmode%
/com,--- Number of DOF = %_ndofs%
/wb,file,end               ! done with WB generated input
